
 OpenBabel07031101083D

 17 17  0  0  0  0  0  0  0  0999 V2000
   33.1430  -12.2923   66.0406 C   0  0  0  0  0
   32.7575  -11.2553   65.1764 C   0  0  0  0  0
   31.4217  -11.0857   64.8198 C   0  0  0  0  0
   31.0427  -10.0715   63.9277 C   0  0  0  0  0
   31.9880   -9.2234   63.3840 C   0  0  0  0  0
   31.5455   -7.0454   63.0979 C   0  0  0  0  0
   32.7474   -6.1215   62.9985 C   0  0  0  0  0
   33.3355   -9.3829   63.7309 C   0  0  0  0  0
   33.7048  -10.3871   64.6257 C   0  0  0  0  0
   29.7315   -9.8624   63.6507 N   0  0  0  0  0
   31.5782   -8.2366   62.4942 N   0  0  0  0  0
   29.1836   -9.3313   64.5764 O   0  0  0  0  0
   29.4474  -10.2545   62.5407 O   0  0  0  0  0
   30.5499   -6.6639   63.7177 O   0  0  0  0  0
   34.3050   -8.6132   63.1207 O   0  0  0  0  0
   32.2552  -12.9459   66.6516 O   0  0  0  0  0
   34.3611  -12.5473   66.1553 O   0  0  0  0  0
  2  1  1  0  0  0
 16  1  2  0  0  0
  1 17  1  0  0  0
  3  2  2  0  0  0
  2  9  1  0  0  0
  4  3  1  0  0  0
 10  4  1  0  0  0
  4  5  2  0  0  0
 11  5  1  0  0  0
  5  8  1  0  0  0
 14  6  2  0  0  0
  6 11  1  0  0  0
  6  7  1  0  0  0
  8 15  1  0  0  0
  8  9  2  0  0  0
 12 10  2  0  0  0
 13 10  1  0  0  0
M  END
>  <MOLID> (1IVDA00)
1IVDA00

>  <SMILES_CANONICAL> (1IVDA00)
CC(=O)Nc1c(O)cc(cc1[N](=O)O)C(=O)O	

>  <OB_MW> (1IVDA00)
241.046

>  <OB_logP> (1IVDA00)
1.4446

>  <OB_PSA> (1IVDA00)
136.29

>  <OB_MR> (1IVDA00)
56.9785

>  <FINGERPRINT> (1IVDA00)
0000000000000000010000000000001011001000000000000000100000011000001000000000000001000001000001001000000000001001000001100000000000000000000000000000000000000000000000000000000001000000000000000000001000000000000100000000000000000000000000000000000000000000000101000000000000000001000000000000000000000000000010000110000000000100001010000000000000000100010000000000000010000000000000000000000000000001100000010000001000000000000100001000000000000000001000000001010000000001010000000011000000001000010000000001100000000000000001000000000001000000000000100000000001000000000000000000100000000000000000000000000010000000000000100000011000000000010000000001001000000010000000000000100000000011000011100010000000100000000000000010000000000000000000000100000010010100000001000000000000000100000000000000010011000000010000000000000000000000001000000000000000000000011000000000000000000000101000001000000010000000010000001000000000000000000010000000011000000000000000011100000000000000000100000000000000100100000000000000001000000000

>  <MCT_HBD> (1IVDA00)
4

>  <MCT_HBA> (1IVDA00)
8

>  <MACCS166> (1IVDA00)
000000000000000000000001000000000000000000001000010011010000001000001110000100100000000000010110101001000000010010001010011100100110101100111111010111110101111110111000

>  <EFINDSITE_POCKET> (1IVDA00)
1

>  <FINDSITE_CLUSTER_SMILES> (1IVDA00)
1

>  <FINDSITE_CLUSTER_MACCS> (1IVDA00)
2

$$$$

 OpenBabel07031101083D

 17 17  0  0  0  0  0  0  0  0999 V2000
   33.1430  -12.2923   66.0406 C   0  0  0  0  0
   32.7575  -11.2553   65.1764 C   0  0  0  0  0
   31.4217  -11.0857   64.8198 C   0  0  0  0  0
   31.0427  -10.0715   63.9277 C   0  0  0  0  0
   31.9880   -9.2234   63.3840 C   0  0  0  0  0
   31.5455   -7.0454   63.0979 C   0  0  0  0  0
   32.7474   -6.1215   62.9985 C   0  0  0  0  0
   33.3355   -9.3829   63.7309 C   0  0  0  0  0
   33.7048  -10.3871   64.6257 C   0  0  0  0  0
   29.7315   -9.8624   63.6507 N   0  0  0  0  0
   31.5782   -8.2366   62.4942 N   0  0  0  0  0
   32.2552  -12.9459   66.6516 O   0  0  0  0  0
   29.4474  -10.2545   62.5407 O   0  0  0  0  0
   29.1836   -9.3313   64.5764 O   0  0  0  0  0
   30.5499   -6.6639   63.7177 O   0  0  0  0  0
   34.3050   -8.6132   63.1207 O   0  0  0  0  0
   34.3611  -12.5473   66.1553 O   0  0  0  0  0
 12  1  2  0  0  0
  1 17  1  0  0  0
  1  2  1  0  0  0
  3  2  2  0  0  0
  2  9  1  0  0  0
  3  4  1  0  0  0
 10  4  1  0  0  0
  4  5  2  0  0  0
  5  8  1  0  0  0
  5 11  1  0  0  0
 11  6  1  0  0  0
 15  6  2  0  0  0
  6  7  1  0  0  0
  9  8  2  0  0  0
  8 16  1  0  0  0
 13 10  2  0  0  0
 10 14  1  0  0  0
M  END
>  <MOLID> (1IVDB00)
1IVDB00

>  <SMILES_CANONICAL> (1IVDB00)
CC(=O)Nc1c(O)cc(cc1[N](=O)O)C(=O)O	

>  <OB_MW> (1IVDB00)
241.046

>  <OB_logP> (1IVDB00)
1.4446

>  <OB_PSA> (1IVDB00)
136.29

>  <OB_MR> (1IVDB00)
56.9785

>  <FINGERPRINT> (1IVDB00)
0000000000000000010000000000001011001000000000000000100000011000001000000000000001000001000001001000000000001001000001100000000000000000000000000000000000000000000000000000000001000000000000000000001000000000000100000000000000000000000000000000000000000000000101000000000000000001000000000000000000000000000010000110000000000100001010000000000000000100010000000000000010000000000000000000000000000001100000010000001000000000000100001000000000000000001000000001010000000001010000000011000000001000010000000001100000000000000001000000000001000000000000100000000001000000000000000000100000000000000000000000000010000000000000100000011000000000010000000001001000000010000000000000100000000011000011100010000000100000000000000010000000000000000000000100000010010100000001000000000000000100000000000000010011000000010000000000000000000000001000000000000000000000011000000000000000000000101000001000000010000000010000001000000000000000000010000000011000000000000000011100000000000000000100000000000000100100000000000000001000000000

>  <MCT_HBD> (1IVDB00)
4

>  <MCT_HBA> (1IVDB00)
8

>  <MACCS166> (1IVDB00)
000000000000000000000001000000000000000000001000010011010000001000001110000100100000000000010110101001000000010010001010011100100110101100111111010111110101111110111000

>  <EFINDSITE_POCKET> (1IVDB00)
1

>  <FINDSITE_CLUSTER_SMILES> (1IVDB00)
1

>  <FINDSITE_CLUSTER_MACCS> (1IVDB00)
2

$$$$

 OpenBabel07031101533D

 23 23  0  0  0  0  0  0  0  0999 V2000
   33.3834  -12.6772   66.1404 C   0  0  0  0  0
   33.1056  -11.4380   65.4155 C   0  0  0  0  0
   34.0181  -10.4968   65.1051 C   0  0  0  0  0
   33.6714   -9.3412   64.1797 C   0  0  0  0  0
   34.8340   -7.2401   63.6823 C   0  0  0  0  0
   32.1540   -9.0660   64.2257 C   0  0  0  0  0
   31.5436   -6.8189   63.4206 C   0  0  0  0  0
   31.2985   -6.0087   62.1762 C   0  0  0  0  0
   31.3839  -10.3795   64.0140 C   0  0  0  0  0
   29.8692  -10.1907   64.1568 C   0  0  0  0  0
   29.0977  -11.4919   63.8814 C   0  0  0  0  0
   27.5748  -11.3330   64.0315 C   0  0  0  0  0
   34.3579   -8.0858   64.5300 N   0  0  0  0  0
   35.3558   -6.0898   64.1461 N   0  0  0  0  0
   34.8305   -7.4336   62.3672 N   0  0  0  0  0
   31.8024   -8.1079   63.1713 N   0  0  0  0  0
   34.4945  -12.8475   66.6516 O   0  0  0  0  0
   31.5346   -6.3412   64.5723 O   0  0  0  0  0
   29.5807   -9.7740   65.4838 O   0  0  0  0  0
   27.0944  -10.3644   63.0967 O   0  0  0  0  0
   29.4293  -11.9252   62.5525 O   0  0  0  0  0
   31.7532  -11.3536   64.9946 O   0  0  0  0  0
   32.4730  -13.5618   66.1544 O   0  0  0  0  0
 17  1  2  0  0  0
  2  1  1  0  0  0
  1 23  1  0  0  0
  3  2  2  0  0  0
  2 22  1  0  0  0
  4  3  1  0  0  0
 13  4  1  0  0  0
  4  6  1  0  0  0
 14  5  2  0  0  0
  5 15  1  0  0  0
  5 13  1  0  0  0
 16  6  1  0  0  0
  6  9  1  0  0  0
 18  7  2  0  0  0
  8  7  1  0  0  0
  7 16  1  0  0  0
  9 22  1  0  0  0
  9 10  1  0  0  0
 19 10  1  0  0  0
 10 11  1  0  0  0
 11 21  1  0  0  0
 11 12  1  0  0  0
 20 12  1  0  0  0
M  END
>  <MOLID> (3B7EB00)
3B7EB00

>  <SMILES_CANONICAL> (3B7EB00)
OC[C@@H](O)[C@@H](O)[C@@H]1OC(=C[C@H](NC(=N)N)[C@H]1NC(=O)C)C(=O)O	

>  <OB_MW> (3B7EB00)
332.133

>  <OB_logP> (3B7EB00)
-1.994

>  <OB_PSA> (3B7EB00)
198.22

>  <OB_MR> (3B7EB00)
75.6537

>  <FINGERPRINT> (3B7EB00)
0000000010000000000000000000000010001001000001001111001000000000000000000001000000000001000000011000010000000001000011010000000110000000001111000000000011000001000000000010000000000010000000000000000000001000000000011000000000111000101000000010110000001000000000010000000000000110000000000000000100010000000000001100101010000000001000000000000001000000010000000000000111000000000000001000000000000010101100000000001000000001100010010010000000000000000000100000000000010100000010000011100100011011100100000000100000110100001000010000100000010100100000000000000000000101010000000101000111000001011000000001100000000000000000001110001000000001000000000000000000000000001000000111000000010101001011111011000000010111000000001000000010000000000010100001000000000000000111000000000000000010000101000000001110001000100000001000110000000000010000001100000001000000000000001001000000000000000000010010000100001000000000001100001001010000000000000000010000000100000000011010110000001110000000000000000000000000001000000100101100000001

>  <MCT_HBD> (3B7EB00)
8

>  <MCT_HBA> (3B7EB00)
11

>  <MACCS166> (3B7EB00)
000000000000000000000000100000000000000000100000000011001000000000000001000111100001000011010010111000010101010000001011001000000011100111111100010011111111111110111000

>  <EFINDSITE_POCKET> (3B7EB00)
1

>  <FINDSITE_CLUSTER_SMILES> (3B7EB00)
2

>  <FINDSITE_CLUSTER_MACCS> (3B7EB00)
1

$$$$

 OpenBabel07031101533D

 23 23  0  0  0  0  0  0  0  0999 V2000
   33.3280  -12.6487   66.1792 C   0  0  0  0  0
   33.0585  -11.4069   65.4437 C   0  0  0  0  0
   31.3546  -10.3171   64.0582 C   0  0  0  0  0
   29.8363  -10.1355   64.1724 C   0  0  0  0  0
   29.0733  -11.4414   63.8860 C   0  0  0  0  0
   27.5503  -11.2311   64.0621 C   0  0  0  0  0
   32.1648   -9.0342   64.2527 C   0  0  0  0  0
   33.6745   -9.3397   64.2125 C   0  0  0  0  0
   34.8084   -7.2349   63.6615 C   0  0  0  0  0
   31.5281   -6.7786   63.4406 C   0  0  0  0  0
   31.3193   -5.9775   62.1921 C   0  0  0  0  0
   33.9942  -10.4804   65.1547 C   0  0  0  0  0
   34.3573   -8.0747   64.5381 N   0  0  0  0  0
   34.7942   -7.4221   62.3446 N   0  0  0  0  0
   35.3093   -6.0771   64.1062 N   0  0  0  0  0
   31.7794   -8.0806   63.2097 N   0  0  0  0  0
   34.4229  -12.8120   66.7483 O   0  0  0  0  0
   32.4066  -13.5110   66.1837 O   0  0  0  0  0
   31.7037  -11.3277   64.9954 O   0  0  0  0  0
   29.4140  -11.8662   62.5559 O   0  0  0  0  0
   27.0892  -10.3019   63.0853 O   0  0  0  0  0
   29.5246   -9.7032   65.4867 O   0  0  0  0  0
   31.5250   -6.2901   64.5763 O   0  0  0  0  0
 17  1  2  0  0  0
 18  1  1  0  0  0
  1  2  1  0  0  0
  2 12  2  0  0  0
  2 19  1  0  0  0
 19  3  1  0  0  0
  3  7  1  0  0  0
  3  4  1  0  0  0
  5  4  1  0  0  0
  4 22  1  0  0  0
 20  5  1  0  0  0
  5  6  1  0  0  0
  6 21  1  0  0  0
  8  7  1  0  0  0
  7 16  1  0  0  0
 12  8  1  0  0  0
  8 13  1  0  0  0
 13  9  1  0  0  0
 14  9  2  0  0  0
  9 15  1  0  0  0
 16 10  1  0  0  0
 10 23  2  0  0  0
 10 11  1  0  0  0
M  END
>  <MOLID> (3B7EA00)
3B7EA00

>  <SMILES_CANONICAL> (3B7EA00)
OC[C@@H](O)[C@@H](O)[C@@H]1OC(=C[C@H](NC(=N)N)[C@H]1NC(=O)C)C(=O)O	

>  <OB_MW> (3B7EA00)
332.133

>  <OB_logP> (3B7EA00)
-1.994

>  <OB_PSA> (3B7EA00)
198.22

>  <OB_MR> (3B7EA00)
75.6537

>  <FINGERPRINT> (3B7EA00)
0000000010000000000000000000000010001001000001001111001000000000000000000001000000000001000000011000010000000001000011010000000110000000001111000000000011000001000000000010000000000010000000000000000000001000000000011000000000111000101000000010110000001000000000010000000000000110000000000000000100010000000000001100101010000000001000000000000001000000010000000000000111000000000000001000000000000010101100000000001000000001100010010010000000000000000000100000000000010100000010000011100100011011100100000000100000110100001000010000100000010100100000000000000000000101010000000101000111000001011000000001100000000000000000001110001000000001000000000000000000000000001000000111000000010101001011111011000000010111000000001000000010000000000010100001000000000000000111000000000000000010000101000000001110001000100000001000110000000000010000001100000001000000000000001001000000000000000000010010000100001000000000001100001001010000000000000000010000000100000000011010110000001110000000000000000000000000001000000100101100000001

>  <MCT_HBD> (3B7EA00)
8

>  <MCT_HBA> (3B7EA00)
11

>  <MACCS166> (3B7EA00)
000000000000000000000000100000000000000000100000000011001000000000000001000111100001000011010010111000010101010000001011001000000011100111111100010011111111111110111000

>  <EFINDSITE_POCKET> (3B7EA00)
1

>  <FINDSITE_CLUSTER_SMILES> (3B7EA00)
2

>  <FINDSITE_CLUSTER_MACCS> (3B7EA00)
1

$$$$

 OpenBabel07031101113D

 23 23  0  0  0  0  0  0  0  0999 V2000
   33.3548   -9.0412   64.7182 C   0  0  0  0  0
   34.5761   -7.3925   63.4974 C   0  0  0  0  0
   31.9888   -9.7377   64.4183 C   0  0  0  0  0
   30.7886   -8.7884   64.1149 C   0  0  0  0  0
   31.3214   -6.5793   63.1706 C   0  0  0  0  0
   31.5905   -5.7229   61.9485 C   0  0  0  0  0
   29.4434   -9.5539   63.7947 C   0  0  0  0  0
   29.5529  -10.4085   62.4843 C   0  0  0  0  0
   28.5768  -11.6138   62.4605 C   0  0  0  0  0
   28.3063   -8.4848   63.6956 C   0  0  0  0  0
   27.9575   -7.7834   65.0257 C   0  0  0  0  0
   31.7516  -10.6842   65.6436 C   0  0  0  0  0
   33.1807  -10.9981   66.1990 C   0  0  0  0  0
   33.5009  -12.4540   66.3465 C   0  0  0  0  0
   34.1599  -10.2870   65.2149 C   0  0  0  0  0
   33.9133   -8.5062   63.4661 N   0  0  0  0  0
   35.0628   -6.8504   62.3239 N   0  0  0  0  0
   34.8797   -6.6373   64.5993 N   0  0  0  0  0
   31.1125   -7.9055   62.9844 N   0  0  0  0  0
   31.3126   -6.0268   64.2580 O   0  0  0  0  0
   30.9902   -9.9990   66.6671 O   0  0  0  0  0
   34.6352  -12.9226   66.4625 O   0  0  0  0  0
   32.4679  -13.2944   66.3419 O   0  0  0  0  0
 16  1  1  0  0  0
  3  1  1  0  0  0
  1 15  1  0  0  0
 17  2  2  0  0  0
  2 16  1  0  0  0
  2 18  1  0  0  0
  4  3  1  0  0  0
  3 12  1  0  0  0
 19  4  1  0  0  0
  7  4  1  0  0  0
  6  5  1  0  0  0
 19  5  1  0  0  0
  5 20  2  0  0  0
  8  7  1  0  0  0
 10  7  1  0  0  0
  8  9  1  0  0  0
 10 11  1  0  0  0
 12 13  1  0  0  0
 12 21  1  0  0  0
 15 13  1  0  0  0
 13 14  1  0  0  0
 14 23  2  0  0  0
 14 22  1  0  0  0
M  END
>  <MOLID> (1L7HA00)
1L7HA00

>  <SMILES_CANONICAL> (1L7HA00)
CCC(CC)[C@H](NC(=O)C)[C@H]1[C@H](NC(=N)N)C[C@H](C(=O)O)[C@H]1O	

>  <OB_MW> (1L7HA00)
328.211

>  <OB_logP> (1L7HA00)
1.4424

>  <OB_PSA> (1L7HA00)
148.53

>  <OB_MR> (1L7HA00)
87.1401

>  <FINGERPRINT> (1L7HA00)
0000000000000011000000000000000000000001000000000001010000000000000000000001000000000000000000000000000000000000000011000000000000000000000110000000000000000000000000000000000000000000000000000000000000000000000000000000000000100000000000000010000000000000000000000000000000000010000000000000000000000000000000011010001000000000001000000000000000000000010000000000000100010000000000000001010000000000100100000001101000000001100000000000000000000000000000000000000000000000000000000000000000011000000000000000100000000000000000000000000000000000000000000000000000000000000000000000000111000000001000000000000000000000000000000000001000000001000000000000000000000000000000000001000000011101001011100001000000000001000000000000000010000000000000000001000000000000000110000000000000000000000000000000001100000000000000000000000000000000010000000000000000000000000000000001000000000000000000000000000000000000000000000000000000010000000000010000010000000000000100011000000000011010000000000000000000000000100000000000101000000000

>  <MCT_HBD> (1L7HA00)
6

>  <MCT_HBA> (1L7HA00)
8

>  <MACCS166> (1L7HA00)
000000000000000000000000100000000000000000100000000010000000000000000000000011010001000011110001100000010101011001011010001000100010100100111110010011110111111110011000

>  <EFINDSITE_POCKET> (1L7HA00)
1

>  <FINDSITE_CLUSTER_SMILES> (1L7HA00)
3

>  <FINDSITE_CLUSTER_MACCS> (1L7HA00)
3

$$$$

 OpenBabel07031101113D

 23 23  0  0  0  0  0  0  0  0999 V2000
   33.2391   -9.0458   64.7432 C   0  0  0  0  0
   34.5143   -7.4224   63.5503 C   0  0  0  0  0
   31.9206   -9.7939   64.3902 C   0  0  0  0  0
   30.6799   -8.8885   64.0675 C   0  0  0  0  0
   31.2230   -6.6860   63.1317 C   0  0  0  0  0
   31.5835   -5.8374   61.9265 C   0  0  0  0  0
   29.3846   -9.7508   63.7824 C   0  0  0  0  0
   29.5743  -10.7044   62.5635 C   0  0  0  0  0
   28.5754  -11.8773   62.4306 C   0  0  0  0  0
   28.1765   -8.7709   63.5986 C   0  0  0  0  0
   27.8949   -7.8602   64.8148 C   0  0  0  0  0
   31.6708  -10.7300   65.6249 C   0  0  0  0  0
   33.0942  -11.0042   66.2192 C   0  0  0  0  0
   33.4462  -12.4550   66.3339 C   0  0  0  0  0
   34.0845  -10.2126   65.3276 C   0  0  0  0  0
   33.8125   -8.5005   63.5129 N   0  0  0  0  0
   34.9967   -6.9157   62.3656 N   0  0  0  0  0
   34.8824   -6.7375   64.6783 N   0  0  0  0  0
   30.9726   -8.0082   62.9282 N   0  0  0  0  0
   31.1807   -6.1138   64.2109 O   0  0  0  0  0
   30.9055   -9.9955   66.6221 O   0  0  0  0  0
   32.4578  -13.3344   66.1636 O   0  0  0  0  0
   34.5912  -12.8710   66.5087 O   0  0  0  0  0
 16  1  1  0  0  0
  3  1  1  0  0  0
  1 15  1  0  0  0
 17  2  2  0  0  0
  2 16  1  0  0  0
  2 18  1  0  0  0
  4  3  1  0  0  0
  3 12  1  0  0  0
 19  4  1  0  0  0
  7  4  1  0  0  0
  6  5  1  0  0  0
 19  5  1  0  0  0
  5 20  2  0  0  0
  8  7  1  0  0  0
 10  7  1  0  0  0
  9  8  2  0  0  0
 10 11  1  0  0  0
 12 13  1  0  0  0
 12 21  1  0  0  0
 15 13  1  0  0  0
 13 14  1  0  0  0
 22 14  2  0  0  0
 14 23  1  0  0  0
M  END
>  <MOLID> (1L7FA00)
1L7FA00

>  <SMILES_CANONICAL> (1L7FA00)
CC[C@@H](C=C)[C@H](NC(=O)C)[C@H]1[C@H](NC(=N)N)C[C@H](C(=O)O)[C@H]1O	

>  <OB_MW> (1L7FA00)
326.195

>  <OB_logP> (1L7FA00)
1.2184

>  <OB_PSA> (1L7FA00)
148.53

>  <OB_MR> (1L7FA00)
86.6661

>  <FINGERPRINT> (1L7FA00)
0000000000000011000000000000000000001001000000000001010000000000000000000001000000000000000000000000000000000000000011000000000000000000000110000000000000000000000000000000000000000000000000000000000000001000000000000000000000100000000000000010010000000000000000000000000000000010000000000000000000010000000000011010101000000000001000000000000000000000010000000000000100010000000000000001010000000000100100000001101000000001100000000000000000000000000000000000000000000100000000000000000000011000000000000000100000000000000000000000000000000000000000000000000000000000000000000100000111000001001000000000000000000000000000000000001000000001000000000000000000000000000000000001000000011101001011100001000000000001000000000000000010000000000000000001000000000000000110000000000000000000000000000000001100000000000000000000000000000000010000000000000000000000000000001001000000000000000000000000000000000000000000000000000000010000000000010000010000000000000100011010010000011010000000000000000000000000100000000000101000000000

>  <MCT_HBD> (1L7FA00)
6

>  <MCT_HBA> (1L7FA00)
8

>  <MACCS166> (1L7FA00)
000000000000000000000000100000000100000000100000000010000000000000000000000011010001000011110001101000010101011001001010001000100010100100111110010011110111111110011000

>  <EFINDSITE_POCKET> (1L7FA00)
1

>  <FINDSITE_CLUSTER_SMILES> (1L7FA00)
3

>  <FINDSITE_CLUSTER_MACCS> (1L7FA00)
3

$$$$

 OpenBabel07031101553D

 23 23  0  0  0  0  0  0  0  0999 V2000
   33.3841  -12.5189   66.2723 C   0  0  0  0  0
   33.0881  -11.2848   65.5440 C   0  0  0  0  0
   34.0107  -10.3265   65.2831 C   0  0  0  0  0
   33.7538   -9.2686   64.2150 C   0  0  0  0  0
   34.8839   -7.1364   63.7252 C   0  0  0  0  0
   32.2567   -8.9448   64.2272 C   0  0  0  0  0
   31.6034   -6.6804   63.4593 C   0  0  0  0  0
   31.4131   -5.8058   62.2511 C   0  0  0  0  0
   31.4342  -10.2289   64.0601 C   0  0  0  0  0
   29.9325  -10.0050   64.1266 C   0  0  0  0  0
   29.1769  -11.3087   63.8354 C   0  0  0  0  0
   27.6641  -11.0987   63.8767 C   0  0  0  0  0
   34.3957   -7.9942   64.5235 N   0  0  0  0  0
   35.4016   -6.0100   64.2366 N   0  0  0  0  0
   34.8931   -7.3113   62.4063 N   0  0  0  0  0
   31.9123   -7.9606   63.2104 N   0  0  0  0  0
   34.4951  -12.6896   66.8013 O   0  0  0  0  0
   32.4820  -13.3900   66.3421 O   0  0  0  0  0
   31.4935   -6.2065   64.5778 O   0  0  0  0  0
   29.6089   -9.5718   65.4485 O   0  0  0  0  0
   27.2497  -10.3271   62.7398 O   0  0  0  0  0
   29.5650  -11.7953   62.5414 O   0  0  0  0  0
   31.7082  -11.1482   65.1193 O   0  0  0  0  0
 17  1  2  0  0  0
 18  1  1  0  0  0
  1  2  1  0  0  0
  2 23  1  0  0  0
  2  3  1  0  0  0
  3  4  1  0  0  0
 13  4  1  0  0  0
  6  4  1  0  0  0
 13  5  1  0  0  0
 14  5  2  0  0  0
  5 15  1  0  0  0
  6  9  1  0  0  0
  6 16  1  0  0  0
 19  7  2  0  0  0
  7 16  1  0  0  0
  7  8  1  0  0  0
 23  9  1  0  0  0
 10  9  1  0  0  0
 20 10  1  0  0  0
 10 11  1  0  0  0
 12 11  1  0  0  0
 11 22  1  0  0  0
 12 21  1  0  0  0
M  END
>  <MOLID> (3CKZA00)
3CKZA00

>  <SMILES_CANONICAL> (3CKZA00)
OC[C@@H](O)[C@@H](O)[C@@H]1O[C@@H](C[C@H](NC(=N)N)[C@H]1NC(=O)C)C(=O)O	

>  <OB_MW> (3CKZA00)
334.149

>  <OB_logP> (3CKZA00)
-2.1192

>  <OB_PSA> (3CKZA00)
198.22

>  <OB_MR> (3CKZA00)
76.1277

>  <FINGERPRINT> (3CKZA00)
0000000000000011000000000100000000000001000000000111000000000000000000000001000000000001000000001000010000000001000011010000000010000000001110000000000011000000000000000000000000000000000000000000000000000000000000000000000000100000000000000010000000001000000000000000000000000110000000000000000100000000000000001000001000000000001000000000000000000000010000000000000111010000000000000000010000000000101100000001101000000001100010000010000000000000000000000000000000010000000010000011100000011011100100000000100000010000001000010000000000010000100000000000000000000000000000000001000111000000001000000000000000000000000000000000001000000001000000000000000000000000001000000011000000010101001011100001000000010111000000000000000010000000000010100001000000000000000111000001000000000000000001000000001100000000000000000000000000000000010000001000000000000010000000000001000000000000000000000010000100001000000000000000001000010000000000000000010000000000000000011000000000001010000000000000000000000000100000000000101000000000

>  <MCT_HBD> (3CKZA00)
8

>  <MCT_HBA> (3CKZA00)
11

>  <MACCS166> (3CKZA00)
000000000000000000000000100000000000000000100000000011001000000000000001000011100001000011110010110000010101011000001011001000000011100111111100010011111111111110111000

>  <EFINDSITE_POCKET> (3CKZA00)
1

>  <FINDSITE_CLUSTER_SMILES> (3CKZA00)
4

>  <FINDSITE_CLUSTER_MACCS> (3CKZA00)
1

$$$$

 OpenBabel07031101123D

 21 21  0  0  0  0  0  0  0  0999 V2000
   33.1626  -12.5209   66.2474 C   0  0  0  0  0
   32.6733  -11.1564   65.7876 C   0  0  0  0  0
   31.2167  -10.2057   63.9598 C   0  0  0  0  0
   32.0321   -8.9414   64.3143 C   0  0  0  0  0
   31.3324   -6.7297   63.3494 C   0  0  0  0  0
   31.1858   -5.8378   62.1086 C   0  0  0  0  0
   33.5786   -9.2357   64.3421 C   0  0  0  0  0
   29.6963  -10.0076   64.1642 C   0  0  0  0  0
   28.9634  -11.3054   63.8706 C   0  0  0  0  0
   27.4295  -11.1669   64.1098 C   0  0  0  0  0
   33.9116  -10.3733   65.3048 C   0  0  0  0  0
   31.8013   -7.9695   63.2099 N   0  0  0  0  0
   31.6409  -11.2862   64.7885 O   0  0  0  0  0
   30.9785   -6.2702   64.4360 O   0  0  0  0  0
   34.2682   -8.0907   64.6651 O   0  0  0  0  0
   29.2018  -11.6403   62.5396 O   0  0  0  0  0
   26.9246  -10.3218   63.0788 O   0  0  0  0  0
   29.4411   -9.5985   65.4948 O   0  0  0  0  0
   32.1415  -10.5129   66.9355 O   0  0  0  0  0
   34.2943  -12.6544   66.7497 O   0  0  0  0  0
   32.3281  -13.4409   66.2203 O   0  0  0  0  0
  2  1  1  0  0  0
  1 21  2  0  0  0
  1 20  1  0  0  0
 13  2  1  0  0  0
 11  2  1  0  0  0
  2 19  1  0  0  0
  3  8  1  0  0  0
  3  4  1  0  0  0
  3 13  1  0  0  0
 12  4  1  0  0  0
  7  4  1  0  0  0
  6  5  1  0  0  0
 12  5  1  0  0  0
  5 14  2  0  0  0
  7 15  1  0  0  0
  7 11  1  0  0  0
  9  8  1  0  0  0
  8 18  1  0  0  0
 16  9  1  0  0  0
  9 10  1  0  0  0
 17 10  1  0  0  0
M  END
>  <MOLID> (1MWEA00)
1MWEA00

>  <SMILES_CANONICAL> (1MWEA00)
OC[C@@H](O)[C@@H](O)[C@@H]1O[C@](O)(C[C@H](O)[C@H]1NC(=O)C)C(=O)O	

>  <OB_MW> (1MWEA00)
309.106

>  <OB_logP> (1MWEA00)
-3.4809

>  <OB_PSA> (1MWEA00)
176.78

>  <OB_MR> (1MWEA00)
64.5825

>  <FINGERPRINT> (1MWEA00)
0000000000000101000000000100000000000001000000000101000000000000000000000001000000000000000000001000000000000001000001010000000010000000001110000000000011000000000000000000000000000000000000000000000000000000001110000000000000100000000000000000000000000000000000000000000000000000000000000000000100000000000000001010000000000000001000000000000000000000010000000000000111010000000000000000010000000000100000000001101000000011100000000000000000000000000000000000000000010000000010000011100000101011100100000000100000010000000000000000000001000000100000000000000000000000000000000001000111000000001000000000000000000000000000000000001000000001000000000000000000000000001000000001000000010100000011100000000000010111000000000000000010000000000010000001000000000000000111000001000000000000000001000000000100000000000000000000000000000000000000001000000000000010000000000011000000000000000000000010000100000000000000000000001000000000000000000000010000000000000000010000000010100010000000000000000000000000000000000000101000000000

>  <MCT_HBD> (1MWEA00)
7

>  <MCT_HBA> (1MWEA00)
10

>  <MACCS166> (1MWEA00)
000000000000000000000000000000000000000000000000000011001000000000000001000000000000000011010010110000010001010100001001001000100011100111111110010011111111111110111000

>  <EFINDSITE_POCKET> (1MWEA00)
1

>  <FINDSITE_CLUSTER_SMILES> (1MWEA00)
5

>  <FINDSITE_CLUSTER_MACCS> (1MWEA00)
1

$$$$

 OpenBabel07031101213D

 28 29  0  0  0  0  0  0  0  0999 V2000
   52.3466  -37.6338   59.0428 C   0  0  0  0  0
   51.7995  -38.8542   59.7650 C   0  0  0  0  0
   53.2483  -40.1657   61.1675 C   0  0  0  0  0
   54.2647  -41.2683   61.2609 C   0  0  0  0  0
   50.6194  -39.3686   58.9692 C   0  0  0  0  0
   49.6752  -38.2178   58.5801 C   0  0  0  0  0
   50.3968  -36.9288   58.1289 C   0  0  0  0  0
   49.5035  -35.7060   57.8419 C   0  0  0  0  0
   47.5973  -38.9487   58.1476 C   0  0  0  0  0
   46.4254  -40.5045   59.4575 C   0  0  0  0  0
   45.1800  -40.3212   58.5792 C   0  0  0  0  0
   45.1595  -38.9237   57.9473 C   0  0  0  0  0
   46.5324  -41.9121   60.0388 C   0  0  0  0  0
   46.4478  -38.6814   57.1796 C   0  0  0  0  0
   46.8735  -36.9839   55.4974 C   0  0  0  0  0
   46.7232  -35.5379   55.0884 C   0  0  0  0  0
   52.8112  -39.8831   59.9450 N   0  0  0  0  0
   46.4641  -37.3136   56.7111 N   0  0  0  0  0
   52.8507  -39.5651   62.1757 O   0  0  0  0  0
   49.9710  -40.3269   59.7744 O   0  0  0  0  0
   48.8750  -35.2236   59.0131 O   0  0  0  0  0
   48.8582  -38.6988   57.5363 O   0  0  0  0  0
   47.5462  -40.2815   58.6312 O   0  0  0  0  0
   44.0613  -38.7664   57.0899 O   0  0  0  0  0
   44.0237  -40.4892   59.3638 O   0  0  0  0  0
   46.6515  -42.8063   58.9485 O   0  0  0  0  0
   47.3679  -37.8095   54.7409 O   0  0  0  0  0
   51.3899  -36.5941   59.0789 O   0  0  0  0  0
  1 28  1  0  0  0
  1  2  1  0  0  0
 17  2  1  0  0  0
  2  5  1  0  0  0
  4  3  1  0  0  0
  3 19  2  0  0  0
  3 17  1  0  0  0
  5  6  1  0  0  0
  5 20  1  0  0  0
  7  6  1  0  0  0
  6 22  1  0  0  0
 28  7  1  0  0  0
  7  8  1  0  0  0
  8 21  1  0  0  0
 22  9  1  0  0  0
  9 14  1  0  0  0
  9 23  1  0  0  0
 23 10  1  0  0  0
 10 13  1  0  0  0
 10 11  1  0  0  0
 12 11  1  0  0  0
 11 25  1  0  0  0
 14 12  1  0  0  0
 12 24  1  0  0  0
 13 26  1  0  0  0
 18 14  1  0  0  0
 16 15  1  0  0  0
 15 27  2  0  0  0
 15 18  1  0  0  0
M  END
>  <MOLID> (1V0ZD00)
1V0ZD00

>  <SMILES_CANONICAL> (1V0ZD00)
OC[C@H]1OC[C@H](NC(=O)C)[C@@H](O)[C@@H]1O[C@@H]1O[C@H](CO)[C@@H](O)[C@H](O)[C@H]1NC(=O)C	

>  <OB_MW> (1V0ZD00)
408.174

>  <OB_logP> (1V0ZD00)
-3.6462

>  <OB_PSA> (1V0ZD00)
187.04

>  <OB_MR> (1V0ZD00)
89.8654

>  <FINGERPRINT> (1V0ZD00)
0000000000000000000000000100000000000001000000000101000000000000000000000001000000000001000000001000000010000001000001010000000010000000001110000000000011000000000000000000000000000000000000000000000000000000001010000000000000101000000000000000000001000000000000000010000000100000000000000000000100000000000000001010000000000000001000000000000000000000010000000000000110000000000000000000000000000000100000000000001000000011100010000000000000000000000000000000000000010000000010000000000000101001100100000000100000010000101000000000000000000000000000000000000000000000000000000001000111000000101000000000000000000000000000000000001000000001000000000001000000000000001000000001000000010100000001100000000000010111000000000000000010000000000010000001000000000000000110000001000000000000000001000000000100000000000000000000000000000000000000001000000000000010000000000011010000000000000000000010000100000000000000000000001000000000000000000000010000000000000000010000000011100000000000000000000000000000000000000000101000000000

>  <MCT_HBD> (1V0ZD00)
7

>  <MCT_HBA> (1V0ZD00)
12

>  <MACCS166> (1V0ZD00)
000000000000000000000000000000000000000000000000000011001000000000000001000000000000000011110010110000010001111000001001001001101011100111111110110011111111111110111000

>  <EFINDSITE_POCKET> (1V0ZD00)
2

>  <FINDSITE_CLUSTER_SMILES> (1V0ZD00)
1

>  <FINDSITE_CLUSTER_MACCS> (1V0ZD00)
1

$$$$

 OpenBabel07031101213D

 14 14  0  0  0  0  0  0  0  0999 V2000
   52.3250  -37.6803   59.1720 C   0  0  0  0  0
   50.3947  -36.9443   58.2679 C   0  0  0  0  0
   49.4752  -35.7336   58.0718 C   0  0  0  0  0
   49.7000  -38.2615   58.6722 C   0  0  0  0  0
   50.6031  -39.3913   59.2241 C   0  0  0  0  0
   51.7794  -38.8272   60.0036 C   0  0  0  0  0
   53.2854  -39.9664   61.5210 C   0  0  0  0  0
   54.3950  -40.9676   61.6985 C   0  0  0  0  0
   52.8171  -39.8122   60.2785 N   0  0  0  0  0
   51.3836  -36.6279   59.2145 O   0  0  0  0  0
   48.9347  -35.2541   59.2910 O   0  0  0  0  0
   49.0237  -38.7810   57.5362 O   0  0  0  0  0
   49.8706  -40.2406   60.0897 O   0  0  0  0  0
   52.8582  -39.3232   62.4835 O   0  0  0  0  0
 10  1  1  0  0  0
  1  6  1  0  0  0
  3  2  1  0  0  0
  2 10  1  0  0  0
  2  4  1  0  0  0
 11  3  1  0  0  0
 12  4  1  0  0  0
  4  5  1  0  0  0
  5  6  1  0  0  0
  5 13  1  0  0  0
  6  9  1  0  0  0
 14  7  2  0  0  0
  9  7  1  0  0  0
  7  8  1  0  0  0
M  END
>  <MOLID> (1V0ZB03)
1V0ZB03

>  <SMILES_CANONICAL> (1V0ZB03)
OC[C@H]1OC[C@H](NC(=O)C)[C@@H](O)[C@@H]1O	

>  <OB_MW> (1V0ZB03)
205.095

>  <OB_logP> (1V0ZB03)
-2.0051

>  <OB_PSA> (1V0ZB03)
99.02

>  <OB_MR> (1V0ZB03)
46.0281

>  <FINGERPRINT> (1V0ZB03)
0000000000000000000000000000000000000001000000000101000000000000000000000001000000000000000000001000000000000001000001010000000010000000001110000000000011000000000000000000000000000000000000000000000000000000000000000000000000100000000000000000000000000000000000000000000000000000000000000000000100000000000000001000000000000000001000000000000000000000010000000000000110000000000000000000000000000000100000000000001000000001100000000000000000000000000000000000000000010000000010000000000000001001100100000000100000010000000000000000000000000000000000000000000000000000000000000001000111000000001000000000000000000000000000000000001000000001000000000000000000000000001000000001000000010100000001100000000000010111000000000000000010000000000010000001000000000000000110000001000000000000000001000000000100000000000000000000000000000000000000001000000000000010000000000001000000000000000000000010000100000000000000000000001000000000000000000000010000000000000000010000000000000000000000000000000000000000000000000000101000000000

>  <MCT_HBD> (1V0ZB03)
4

>  <MCT_HBA> (1V0ZB03)
6

>  <MACCS166> (1V0ZB03)
000000000000000000000000000000000000000000000000000011001000000000000001000000000000000011110010110000010001111000001001000000101011100111111110010011111111111110111000

>  <EFINDSITE_POCKET> (1V0ZB03)
2

>  <FINDSITE_CLUSTER_SMILES> (1V0ZB03)
1

>  <FINDSITE_CLUSTER_MACCS> (1V0ZB03)
1

$$$$

 OpenBabel07031101213D

  7  7  0  0  0  0  0  0  0  0999 V2000
   51.1625  -21.5462   46.8366 C   0  0  0  0  0
   51.4023  -22.9910   46.9732 C   0  0  0  0  0
   52.7530  -24.1045   46.1546 C   0  0  0  0  0
   53.2695  -25.3801   45.5624 C   0  0  0  0  0
   52.7903  -26.6789   45.9314 O   0  0  0  0  0
   52.2791  -23.9581   47.4805 O   0  0  0  0  0
   50.7857  -20.2111   47.0480 O   0  0  0  0  0
  2  1  1  0  0  0
  1  7  1  0  0  0
  3  2  1  0  0  0
  6  2  1  0  0  0
  4  3  1  0  0  0
  3  6  1  0  0  0
  5  4  2  0  0  0
M  END
>  <MOLID> (1V0ZC00)
1V0ZC00

>  <SMILES_CANONICAL> (1V0ZC00)
OC[C@@H]1O[C@H]1C=O	

>  <OB_MW> (1V0ZC00)
102.032

>  <OB_logP> (1V0ZC00)
-1.055

>  <OB_PSA> (1V0ZC00)
49.83

>  <OB_MR> (1V0ZC00)
21.6748

>  <FINGERPRINT> (1V0ZC00)
0000000000000100000000000000000000000000000000000000000000000000000000000000000000000000000000000000000000000000000000000000000000000000000000000000000010000000000000000000000000000000000000000000000000000000000000000000000000000000000000000000000000000000000000000000000000000000000000000000000000000000000000000000000000000000000000000000000000000000010000000000000011010000000000000001010000000000100000000000000000000000000000000000000000000000000000000000000000000000000000000010000000001000000000000000100000000000000000000000000000000000100000000000000000000000000000000000000101000000000000000000000000000000000000000000000000000001000000000000000000000000000000000000000000000000000000100000000000000101000000000000000000000000000010000000000000000000000101000000000000000000000001000000000000000000000000000000000000000000000000000000000000000000000000000000000000000000000000000010000000000000000000000000001000000000000000000000000000000000000000000000000000000000000000000000000000000000000000000000000000000000

>  <MCT_HBD> (1V0ZC00)
1

>  <MCT_HBA> (1V0ZC00)
3

>  <MACCS166> (1V0ZC00)
000000000000000100000100000000000000000000000000000000001000000000000001000000000100000010000000000000000000100000000001000000000011000111110000010001011110101000011000

>  <EFINDSITE_POCKET> (1V0ZC00)
3

>  <FINDSITE_CLUSTER_SMILES> (1V0ZC00)
1

>  <FINDSITE_CLUSTER_MACCS> (1V0ZC00)
1

$$$$

 OpenBabel07031101083D

 28 29  0  0  0  0  0  0  0  0999 V2000
   37.3384  -12.4229   30.6728 C   0  0  0  0  0
   35.9323  -12.8609   30.1972 C   0  0  0  0  0
   34.8809  -13.1998   32.3472 C   0  0  0  0  0
   34.4672  -14.1412   33.4638 C   0  0  0  0  0
   35.9836  -13.7130   28.9276 C   0  0  0  0  0
   36.8989  -13.1156   27.8136 C   0  0  0  0  0
   38.2870  -12.7402   28.4269 C   0  0  0  0  0
   39.4241  -12.1137   27.5259 C   0  0  0  0  0
   36.7223  -13.6386   25.4153 C   0  0  0  0  0
   35.0662  -12.3653   24.3298 C   0  0  0  0  0
   33.6848  -11.7634   24.5262 C   0  0  0  0  0
   35.3842  -13.0526   23.0581 C   0  0  0  0  0
   36.8061  -13.6595   23.0166 C   0  0  0  0  0
   37.1226  -14.5529   24.2617 C   0  0  0  0  0
   39.5373  -14.0033   24.5020 C   0  0  0  0  0
   40.8895  -14.5488   24.9960 C   0  0  0  0  0
   35.4991  -13.6991   31.2822 N   0  0  0  0  0
   38.5128  -14.8456   24.6264 N   0  0  0  0  0
   34.6055  -12.0002   32.4562 O   0  0  0  0  0
   34.6884  -13.8795   28.3653 O   0  0  0  0  0
   38.9020  -11.4016   26.4123 O   0  0  0  0  0
   37.0528  -14.1333   26.7395 O   0  0  0  0  0
   35.3343  -13.3409   25.3428 O   0  0  0  0  0
   33.3704  -11.8414   25.9225 O   0  0  0  0  0
   35.2747  -12.0816   22.0657 O   0  0  0  0  0
   36.8950  -14.4361   21.8339 O   0  0  0  0  0
   39.4219  -12.8788   23.9965 O   0  0  0  0  0
   38.0099  -11.8297   29.5183 O   0  0  0  0  0
  2  1  1  0  0  0
  1 28  1  0  0  0
 17  2  1  0  0  0
  2  5  1  0  0  0
 19  3  2  0  0  0
  3  4  1  0  0  0
  3 17  1  0  0  0
 20  5  1  0  0  0
  5  6  1  0  0  0
  6 22  1  0  0  0
  6  7  1  0  0  0
 28  7  1  0  0  0
  7  8  1  0  0  0
 21  8  1  0  0  0
 23  9  1  0  0  0
  9 22  1  0  0  0
  9 14  1  0  0  0
 11 10  1  0  0  0
 10 12  1  0  0  0
 10 23  1  0  0  0
 24 11  1  0  0  0
 25 12  1  0  0  0
 12 13  1  0  0  0
 13 26  1  0  0  0
 13 14  1  0  0  0
 14 18  1  0  0  0
 27 15  2  0  0  0
 18 15  1  0  0  0
 15 16  1  0  0  0
M  END
>  <MOLID> (1IVGA00)
1IVGA00

>  <SMILES_CANONICAL> (1IVGA00)
OC[C@H]1OC[C@H](NC(=O)C)[C@@H](O)[C@@H]1O[C@@H]1O[C@H](CO)[C@@H](O)[C@H](O)[C@H]1NC(=O)C	

>  <OB_MW> (1IVGA00)
408.174

>  <OB_logP> (1IVGA00)
-3.6462

>  <OB_PSA> (1IVGA00)
187.04

>  <OB_MR> (1IVGA00)
89.8654

>  <FINGERPRINT> (1IVGA00)
0000000000000000000000000100000000000001000000000101000000000000000000000001000000000001000000001000000010000001000001010000000010000000001110000000000011000000000000000000000000000000000000000000000000000000001010000000000000101000000000000000000001000000000000000010000000100000000000000000000100000000000000001010000000000000001000000000000000000000010000000000000110000000000000000000000000000000100000000000001000000011100010000000000000000000000000000000000000010000000010000000000000101001100100000000100000010000101000000000000000000000000000000000000000000000000000000001000111000000101000000000000000000000000000000000001000000001000000000001000000000000001000000001000000010100000001100000000000010111000000000000000010000000000010000001000000000000000110000001000000000000000001000000000100000000000000000000000000000000000000001000000000000010000000000011010000000000000000000010000100000000000000000000001000000000000000000000010000000000000000010000000011100000000000000000000000000000000000000000101000000000

>  <MCT_HBD> (1IVGA00)
7

>  <MCT_HBA> (1IVGA00)
12

>  <MACCS166> (1IVGA00)
000000000000000000000000000000000000000000000000000011001000000000000001000000000000000011110010110000010001111000001001001001101011100111111110110011111111111110111000

>  <EFINDSITE_POCKET> (1IVGA00)
4

>  <FINDSITE_CLUSTER_SMILES> (1IVGA00)
1

>  <FINDSITE_CLUSTER_MACCS> (1IVGA00)
1

$$$$

 OpenBabel07031101083D

 28 29  0  0  0  0  0  0  0  0999 V2000
   37.3384  -12.4229   30.6728 C   0  0  0  0  0
   35.9323  -12.8609   30.1972 C   0  0  0  0  0
   34.8809  -13.1998   32.3472 C   0  0  0  0  0
   34.4672  -14.1412   33.4638 C   0  0  0  0  0
   35.9836  -13.7130   28.9276 C   0  0  0  0  0
   36.8989  -13.1156   27.8136 C   0  0  0  0  0
   36.7223  -13.6386   25.4153 C   0  0  0  0  0
   37.1226  -14.5529   24.2617 C   0  0  0  0  0
   36.8061  -13.6595   23.0166 C   0  0  0  0  0
   35.3842  -13.0526   23.0581 C   0  0  0  0  0
   35.0662  -12.3653   24.3298 C   0  0  0  0  0
   33.6848  -11.7634   24.5262 C   0  0  0  0  0
   39.5373  -14.0033   24.5020 C   0  0  0  0  0
   40.8895  -14.5488   24.9960 C   0  0  0  0  0
   38.2870  -12.7402   28.4269 C   0  0  0  0  0
   39.4241  -12.1137   27.5259 C   0  0  0  0  0
   35.4991  -13.6991   31.2822 N   0  0  0  0  0
   38.5128  -14.8456   24.6264 N   0  0  0  0  0
   34.6055  -12.0002   32.4562 O   0  0  0  0  0
   34.6884  -13.8795   28.3653 O   0  0  0  0  0
   37.0528  -14.1333   26.7395 O   0  0  0  0  0
   36.8950  -14.4361   21.8339 O   0  0  0  0  0
   35.2747  -12.0816   22.0657 O   0  0  0  0  0
   33.3704  -11.8414   25.9225 O   0  0  0  0  0
   39.4219  -12.8788   23.9965 O   0  0  0  0  0
   35.3343  -13.3409   25.3428 O   0  0  0  0  0
   38.9020  -11.4016   26.4123 O   0  0  0  0  0
   38.0099  -11.8297   29.5183 O   0  0  0  0  0
  2  1  1  0  0  0
  1 28  1  0  0  0
 17  2  1  0  0  0
  5  2  1  0  0  0
  4  3  1  0  0  0
 17  3  1  0  0  0
  3 19  2  0  0  0
 20  5  1  0  0  0
  5  6  1  0  0  0
 21  6  1  0  0  0
  6 15  1  0  0  0
  8  7  1  0  0  0
 26  7  1  0  0  0
 21  7  1  0  0  0
  8 18  1  0  0  0
  8  9  1  0  0  0
 22  9  1  0  0  0
 10  9  1  0  0  0
 10 11  1  0  0  0
 10 23  1  0  0  0
 26 11  1  0  0  0
 12 11  1  0  0  0
 24 12  1  0  0  0
 18 13  1  0  0  0
 13 14  1  0  0  0
 13 25  2  0  0  0
 15 28  1  0  0  0
 15 16  1  0  0  0
 16 27  1  0  0  0
M  END
>  <MOLID> (1IVGB00)
1IVGB00

>  <SMILES_CANONICAL> (1IVGB00)
OC[C@H]1OC[C@H](NC(=O)C)[C@@H](O)[C@@H]1O[C@@H]1O[C@H](CO)[C@@H](O)[C@H](O)[C@H]1NC(=O)C	

>  <OB_MW> (1IVGB00)
408.174

>  <OB_logP> (1IVGB00)
-3.6462

>  <OB_PSA> (1IVGB00)
187.04

>  <OB_MR> (1IVGB00)
89.8654

>  <FINGERPRINT> (1IVGB00)
0000000000000000000000000100000000000001000000000101000000000000000000000001000000000001000000001000000010000001000001010000000010000000001110000000000011000000000000000000000000000000000000000000000000000000001010000000000000101000000000000000000001000000000000000010000000100000000000000000000100000000000000001010000000000000001000000000000000000000010000000000000110000000000000000000000000000000100000000000001000000011100010000000000000000000000000000000000000010000000010000000000000101001100100000000100000010000101000000000000000000000000000000000000000000000000000000001000111000000101000000000000000000000000000000000001000000001000000000001000000000000001000000001000000010100000001100000000000010111000000000000000010000000000010000001000000000000000110000001000000000000000001000000000100000000000000000000000000000000000000001000000000000010000000000011010000000000000000000010000100000000000000000000001000000000000000000000010000000000000000010000000011100000000000000000000000000000000000000000101000000000

>  <MCT_HBD> (1IVGB00)
7

>  <MCT_HBA> (1IVGB00)
12

>  <MACCS166> (1IVGB00)
000000000000000000000000000000000000000000000000000011001000000000000001000000000000000011110010110000010001111000001001001001101011100111111110110011111111111110111000

>  <EFINDSITE_POCKET> (1IVGB00)
4

>  <FINDSITE_CLUSTER_SMILES> (1IVGB00)
1

>  <FINDSITE_CLUSTER_MACCS> (1IVGB00)
1

$$$$

 OpenBabel07031101213D

 14 14  0  0  0  0  0  0  0  0999 V2000
   43.7969  -10.6866   29.7468 C   0  0  0  0  0
   42.0381  -10.6602   28.0964 C   0  0  0  0  0
   40.5954  -11.1349   27.9468 C   0  0  0  0  0
   42.9280  -11.4239   27.1019 C   0  0  0  0  0
   44.3976  -11.5397   27.5207 C   0  0  0  0  0
   44.5058  -11.8205   29.0159 C   0  0  0  0  0
   46.2294  -12.7161   30.4924 C   0  0  0  0  0
   46.6508  -14.1300   30.2076 C   0  0  0  0  0
   45.8857  -11.9654   29.4472 N   0  0  0  0  0
   42.4144  -10.8107   29.4626 O   0  0  0  0  0
   39.7144  -10.0998   28.3189 O   0  0  0  0  0
   42.8652  -10.7753   25.8500 O   0  0  0  0  0
   45.0286  -12.5613   26.7783 O   0  0  0  0  0
   46.2137  -12.2881   31.6460 O   0  0  0  0  0
 10  1  1  0  0  0
  1  6  1  0  0  0
  3  2  1  0  0  0
  2 10  1  0  0  0
  2  4  1  0  0  0
 11  3  1  0  0  0
 12  4  1  0  0  0
  4  5  1  0  0  0
  5  6  1  0  0  0
  5 13  1  0  0  0
  6  9  1  0  0  0
  9  7  1  0  0  0
 14  7  2  0  0  0
  7  8  1  0  0  0
M  END
>  <MOLID> (1V0ZB00)
1V0ZB00

>  <SMILES_CANONICAL> (1V0ZB00)
OC[C@H]1OC[C@H](NC(=O)C)[C@@H](O)[C@@H]1O	

>  <OB_MW> (1V0ZB00)
205.095

>  <OB_logP> (1V0ZB00)
-2.0051

>  <OB_PSA> (1V0ZB00)
99.02

>  <OB_MR> (1V0ZB00)
46.0281

>  <FINGERPRINT> (1V0ZB00)
0000000000000000000000000000000000000001000000000101000000000000000000000001000000000000000000001000000000000001000001010000000010000000001110000000000011000000000000000000000000000000000000000000000000000000000000000000000000100000000000000000000000000000000000000000000000000000000000000000000100000000000000001000000000000000001000000000000000000000010000000000000110000000000000000000000000000000100000000000001000000001100000000000000000000000000000000000000000010000000010000000000000001001100100000000100000010000000000000000000000000000000000000000000000000000000000000001000111000000001000000000000000000000000000000000001000000001000000000000000000000000001000000001000000010100000001100000000000010111000000000000000010000000000010000001000000000000000110000001000000000000000001000000000100000000000000000000000000000000000000001000000000000010000000000001000000000000000000000010000100000000000000000000001000000000000000000000010000000000000000010000000000000000000000000000000000000000000000000000101000000000

>  <MCT_HBD> (1V0ZB00)
4

>  <MCT_HBA> (1V0ZB00)
6

>  <MACCS166> (1V0ZB00)
000000000000000000000000000000000000000000000000000011001000000000000001000000000000000011110010110000010001111000001001000000101011100111111110010011111111111110111000

>  <EFINDSITE_POCKET> (1V0ZB00)
4

>  <FINDSITE_CLUSTER_SMILES> (1V0ZB00)
1

>  <FINDSITE_CLUSTER_MACCS> (1V0ZB00)
1

$$$$

 OpenBabel07031101123D

 21 21  0  0  0  0  0  0  0  0999 V2000
   36.3679  -28.5785   73.6860 C   0  0  0  0  0
   36.9881  -28.6187   75.1528 C   0  0  0  0  0
   38.4591  -29.2248   75.0752 C   0  0  0  0  0
   39.4434  -28.3039   74.4602 C   0  0  0  0  0
   39.3840  -26.9552   75.1210 C   0  0  0  0  0
   41.2086  -25.3664   74.9426 C   0  0  0  0  0
   42.1219  -24.5413   74.0549 C   0  0  0  0  0
   37.9278  -26.3973   75.1528 C   0  0  0  0  0
   37.7348  -25.1005   75.9511 C   0  0  0  0  0
   36.2620  -24.7168   76.0756 C   0  0  0  0  0
   36.1528  -23.2466   76.4113 C   0  0  0  0  0
   40.2772  -26.1177   74.3693 N   0  0  0  0  0
   36.5784  -29.5081   72.8670 O   0  0  0  0  0
   35.6104  -27.6135   73.4258 O   0  0  0  0  0
   41.3240  -25.2709   76.1648 O   0  0  0  0  0
   38.2413  -25.1811   77.2552 O   0  0  0  0  0
   35.5272  -24.9860   74.8908 O   0  0  0  0  0
   34.8013  -22.9954   76.4475 O   0  0  0  0  0
   40.7596  -28.8621   74.6431 O   0  0  0  0  0
   36.1257  -29.3406   76.0251 O   0  0  0  0  0
   37.0416  -27.3103   75.7902 O   0  0  0  0  0
 13  1  2  0  0  0
 14  1  1  0  0  0
  1  2  1  0  0  0
  3  2  1  0  0  0
  2 21  1  0  0  0
  2 20  1  0  0  0
  4  3  1  0  0  0
  4 19  1  0  0  0
  4  5  1  0  0  0
 12  5  1  0  0  0
  5  8  1  0  0  0
  7  6  1  0  0  0
 12  6  1  0  0  0
  6 15  2  0  0  0
  8 21  1  0  0  0
  8  9  1  0  0  0
  9 10  1  0  0  0
  9 16  1  0  0  0
 17 10  1  0  0  0
 10 11  1  0  0  0
 11 18  1  0  0  0
M  END
>  <MOLID> (1MWEA01)
1MWEA01

>  <SMILES_CANONICAL> (1MWEA01)
OC[C@@H](O)[C@@H](O)[C@@H]1O[C@](O)(C[C@H](O)[C@H]1NC(=O)C)C(=O)O	

>  <OB_MW> (1MWEA01)
309.106

>  <OB_logP> (1MWEA01)
-3.4809

>  <OB_PSA> (1MWEA01)
176.78

>  <OB_MR> (1MWEA01)
64.5825

>  <FINGERPRINT> (1MWEA01)
0000000000000101000000000100000000000001000000000101000000000000000000000001000000000000000000001000000000000001000001010000000010000000001110000000000011000000000000000000000000000000000000000000000000000000001110000000000000100000000000000000000000000000000000000000000000000000000000000000000100000000000000001010000000000000001000000000000000000000010000000000000111010000000000000000010000000000100000000001101000000011100000000000000000000000000000000000000000010000000010000011100000101011100100000000100000010000000000000000000001000000100000000000000000000000000000000001000111000000001000000000000000000000000000000000001000000001000000000000000000000000001000000001000000010100000011100000000000010111000000000000000010000000000010000001000000000000000111000001000000000000000001000000000100000000000000000000000000000000000000001000000000000010000000000011000000000000000000000010000100000000000000000000001000000000000000000000010000000000000000010000000010100010000000000000000000000000000000000000101000000000

>  <MCT_HBD> (1MWEA01)
7

>  <MCT_HBA> (1MWEA01)
10

>  <MACCS166> (1MWEA01)
000000000000000000000000000000000000000000000000000011001000000000000001000000000000000011010010110000010001010100001001001000100011100111111110010011111111111110111000

>  <EFINDSITE_POCKET> (1MWEA01)
5

>  <FINDSITE_CLUSTER_SMILES> (1MWEA01)
1

>  <FINDSITE_CLUSTER_MACCS> (1MWEA01)
1

$$$$

 OpenBabel07031101213D

 12 12  0  0  0  0  0  0  0  0999 V2000
   41.5511  -35.8312   64.8804 C   0  0  0  0  0
   41.2527  -34.1961   66.5840 C   0  0  0  0  0
   42.0219  -33.5217   67.7236 C   0  0  0  0  0
   39.9304  -34.8739   67.0051 C   0  0  0  0  0
   39.8833  -36.3926   66.7449 C   0  0  0  0  0
   40.4940  -36.8051   65.4014 C   0  0  0  0  0
   42.1524  -35.1048   65.9477 O   0  0  0  0  0
   41.6387  -33.9844   69.0265 O   0  0  0  0  0
   40.5230  -37.1117   67.8130 O   0  0  0  0  0
   38.8122  -34.2575   66.3422 O   0  0  0  0  0
   37.8961  -34.3750   66.4297 O   0  0  0  0  0
   41.0720  -38.1189   65.4657 O   0  0  0  0  0
  7  1  1  0  0  0
  1  6  1  0  0  0
  3  2  1  0  0  0
  7  2  1  0  0  0
  2  4  1  0  0  0
  3  8  1  0  0  0
  4 10  1  0  0  0
  4  5  1  0  0  0
  6  5  1  0  0  0
  9  5  1  0  0  0
  6 12  1  0  0  0
 10 11  1  0  0  0
M  END
>  <MOLID> (1V0ZD02)
1V0ZD02

>  <SMILES_CANONICAL> (1V0ZD02)
OO[C@@H]1[C@@H](CO)OC[C@@H](O)[C@H]1O	

>  <OB_MW> (1V0ZD02)
180.063

>  <OB_logP> (1V0ZD02)
-2.0425

>  <OB_PSA> (1V0ZD02)
99.38

>  <OB_MR> (1V0ZD02)
36.0692

>  <FINGERPRINT> (1V0ZD02)
0000000000000000000000000000000000000001000000000000000000000000000000000000000000000000000000000000000000000001000000010000000010000000001010000000000001000000000000000000000000000000000000000000000000000000000000000000000000000000000000000000000000000000000000000000000000000000000000000000000100000000000000000000000000000000000000000000000000000000010000000000000010000000000000000000000000000000000000000000000000000010100000000000000010000000000000000000000000000000000000000000000000001010100100000010100000000000000000000000000000000000000000000000000000000000000000000001000101000000001000000000000000000000000000000000000000000001000000010000000101000000001000000000000000001010000000000000000000000101000000001000000000000000000010000000000000000000000100000000000000000000000001000000000000000000000000000000000000000000000000000100000000000000000000000000000000000000000000000010000000000000000000000000001000000000000000000000000000000000000000000000000000000000000000000000010000000000000000000000000000000000

>  <MCT_HBD> (1V0ZD02)
4

>  <MCT_HBA> (1V0ZD02)
6

>  <MACCS166> (1V0ZD02)
000000000000000000000000000000000000000000000000000011001000000000001001000000000000000011100000010001010000100000000001000101101111000011110010010001011010101000111000

>  <EFINDSITE_POCKET> (1V0ZD02)
6

>  <FINDSITE_CLUSTER_SMILES> (1V0ZD02)
1

>  <FINDSITE_CLUSTER_MACCS> (1V0ZD02)
1

$$$$

 OpenBabel07031101213D

 11 11  0  0  0  0  0  0  0  0999 V2000
   41.1068  -38.1900   63.6803 C   0  0  0  0  0
   41.0086  -35.7385   63.9059 C   0  0  0  0  0
   41.5501  -34.4622   63.2373 C   0  0  0  0  0
   41.3899  -35.8752   65.3835 C   0  0  0  0  0
   40.8657  -37.1996   65.9586 C   0  0  0  0  0
   41.3604  -38.4074   65.1617 C   0  0  0  0  0
   41.4817  -36.8840   63.1816 O   0  0  0  0  0
   41.0598  -34.3358   61.8828 O   0  0  0  0  0
   41.2242  -37.3552   67.3365 O   0  0  0  0  0
   40.8258  -34.7841   66.1142 O   0  0  0  0  0
   42.7621  -38.6161   65.2959 O   0  0  0  0  0
  1  6  1  0  0  0
  1  7  1  0  0  0
  7  2  1  0  0  0
  2  4  1  0  0  0
  2  3  1  0  0  0
  8  3  1  0  0  0
  5  4  1  0  0  0
  4 10  1  0  0  0
  6  5  1  0  0  0
  5  9  1  0  0  0
  6 11  1  0  0  0
M  END
>  <MOLID> (1V0ZA00)
1V0ZA00

>  <SMILES_CANONICAL> (1V0ZA00)
OC[C@H]1OC[C@@H](O)[C@@H](O)[C@@H]1O	

>  <OB_MW> (1V0ZA00)
164.068

>  <OB_logP> (1V0ZA00)
-2.5398

>  <OB_PSA> (1V0ZA00)
90.15

>  <OB_MR> (1V0ZA00)
34.5742

>  <FINGERPRINT> (1V0ZA00)
0000000000000000000000000000000000000001000000000000000000000000000000000000000000000000000000000000000000000001000000010000000010000000001010000000000001000000000000000000000000000000000000000000000000000000000000000000000000000000000000000000000000000000000000000000000000000000000000000000000100000000000000000000000000000000000000000000000000000000010000000000000010000000000000000000000000000000000000000000000000000010100000000000000000000000000000000000000000000000000000000000000000001010100100000000100000000000000000000000000000000000000000000000000000000000000000000001000101000000001000000000000000000000000000000000000000000001000000000000000000000000001000000000000000000000000000000000000000000101000000000000000000000000000010000000000000000000000100000000000000000000000001000000000000000000000000000000000000000000000000000000000000000000000000000000000000000000000000000010000000000000000000000000001000000000000000000000000000000000000000000000000000000000000000000000000000000000000000000000000000000000

>  <MCT_HBD> (1V0ZA00)
4

>  <MCT_HBA> (1V0ZA00)
5

>  <MACCS166> (1V0ZA00)
000000000000000000000000000000000000000000000000000011001000000000000001000000000000000011100000010000010000100000000001000000101011000011110010010001011010101000111000

>  <EFINDSITE_POCKET> (1V0ZA00)
6

>  <FINDSITE_CLUSTER_SMILES> (1V0ZA00)
1

>  <FINDSITE_CLUSTER_MACCS> (1V0ZA00)
1

$$$$

 OpenBabel07031101213D

 22 23  0  0  0  0  0  0  0  0999 V2000
   42.5721  -41.4371   57.9475 C   0  0  0  0  0
   40.4449  -40.4463   57.7557 C   0  0  0  0  0
   39.6509  -39.1462   57.9061 C   0  0  0  0  0
   38.5749  -37.8965   59.8599 C   0  0  0  0  0
   39.4847  -37.1437   60.8393 C   0  0  0  0  0
   39.9074  -38.1168   61.9310 C   0  0  0  0  0
   38.6324  -38.4196   62.7070 C   0  0  0  0  0
   37.6890  -39.1745   61.7589 C   0  0  0  0  0
   36.3729  -39.5080   62.4471 C   0  0  0  0  0
   39.7727  -41.6880   58.3808 C   0  0  0  0  0
   40.6919  -42.9250   58.3780 C   0  0  0  0  0
   42.1098  -42.5908   58.8196 C   0  0  0  0  0
   41.7853  -40.2717   58.2272 O   0  0  0  0  0
   39.4201  -38.7507   59.2623 O   0  0  0  0  0
   38.8188  -36.0324   61.4648 O   0  0  0  0  0
   40.9783  -37.6124   62.7479 O   0  0  0  0  0
   36.6102  -40.5067   63.4462 O   0  0  0  0  0
   38.9393  -39.1504   63.8987 O   0  0  0  0  0
   37.4219  -38.4122   60.5566 O   0  0  0  0  0
   38.5926  -42.0055   57.6299 O   0  0  0  0  0
   40.1838  -43.9702   59.2113 O   0  0  0  0  0
   42.1549  -42.1937   60.1991 O   0  0  0  0  0
 13  1  1  0  0  0
  1 12  1  0  0  0
 13  2  1  0  0  0
  3  2  1  0  0  0
  2 10  1  0  0  0
  3 14  1  0  0  0
  5  4  1  0  0  0
 14  4  1  0  0  0
  4 19  1  0  0  0
 15  5  1  0  0  0
  5  6  1  0  0  0
 16  6  1  0  0  0
  6  7  1  0  0  0
  7 18  1  0  0  0
  7  8  1  0  0  0
 19  8  1  0  0  0
  8  9  1  0  0  0
  9 17  1  0  0  0
 11 10  1  0  0  0
 10 20  1  0  0  0
 12 11  1  0  0  0
 11 21  1  0  0  0
 22 12  1  0  0  0
M  END
>  <MOLID> (1V0ZD01)
1V0ZD01

>  <SMILES_CANONICAL> (1V0ZD01)
OC[C@H]1O[C@H](OC[C@H]2OC[C@@H](O)[C@@H](O)[C@@H]2O)[C@@H](O)[C@@H](O)[C@@H]1O	

>  <OB_MW> (1V0ZD01)
326.121

>  <OB_logP> (1V0ZD01)
-4.7156

>  <OB_PSA> (1V0ZD01)
169.3

>  <OB_MR> (1V0ZD01)
66.9576

>  <FINGERPRINT> (1V0ZD01)
0000000000000000000000000100000000000001000000000000000000000000000000000000000000000000000000000000000010000001000000010000000010000000001010000000000001000000000000000000000000000000000000000000000000000000001010000000000000001000000000000000000001000000000000000010000000100000000000000000000100000000000000000010000000000000000000000000000000000000010000000000000010000000000000000000000000000000000000000000000000000010100000000000000000000000000000000000000000000000000000000000000000101010100100000000100000000000100000000000000000000000000000000000000000000000000000000001000101000000101000000000000000000000000000000000000000000001000000000001000000000000001000000000000000000000000000000000000000000101000000000000000000000000000010000000000000000000000100000000000000000000000001000000000000000000000000000000000000000000000000000000000000000000000000000010010000000000000000000010000000000000000000000000001000000000000000000000000000000000000000000000000010100000000000000000000000000000000000000000000000000000

>  <MCT_HBD> (1V0ZD01)
7

>  <MCT_HBA> (1V0ZD01)
10

>  <MACCS166> (1V0ZD01)
000000000000000000000000000000000000000000000000000011001000000000000001000000000000000011100000010000010000100000000001001001101011000011110010110001011010101000111000

>  <EFINDSITE_POCKET> (1V0ZD01)
6

>  <FINDSITE_CLUSTER_SMILES> (1V0ZD01)
2

>  <FINDSITE_CLUSTER_MACCS> (1V0ZD01)
1

$$$$
